*Heading
** Job name: Job-1 Model name: Model-1
** Generated by: Abaqus/CAE 6.13-1
*Preprint, echo=NO, model=NO, history=NO, contact=NO
**
** PARTS
**
*Part, name=Part-1
*Node
      1, 0.00499999989,           0.
      2, 0.00499999989, 0.00999999978
      3, -0.00499999989, 0.00999999978
      4, -0.00499999989,           0.
      5,          -1., 0.00999999978
      6,          -1.,           0.
      7,           1.,           0.
      8,           1., 0.00999999978
      9,           0., 0.00999999978
     10,           0.,           0.
     11, -0.00999999978, 0.00999999978
     12, -0.0149999997, 0.00999999978
     13, -0.0199999996, 0.00999999978
     14, -0.0250000004, 0.00999999978
     15, -0.0299999993, 0.00999999978
     16, -0.0350000001, 0.00999999978
     17, -0.0399999991, 0.00999999978
     18, -0.0450000018, 0.00999999978
     19, -0.0500000007, 0.00999999978
     20, -0.0549999997, 0.00999999978
** ... 2383 like lines cut
*Element, type=CPE6
1,   1,   2,   9, 803, 804, 805
2,   9,  10,   1, 806, 807, 805
3,  10,   9,   3, 806, 808, 809
4,   3,   4,  10, 810, 811, 809
  5,    4,    3,   11,  810,  812,  813
  6,   11,  406,    4,  814,  815,  813
  7,  406,   11,   12,  814,  816,  817
  8,   12,  405,  406,  818,  819,  817
  9,  405,   12,   13,  818,  820,  821
 10,   13,  404,  405,  822,  823,  821
 11,  404,   13,   14,  822,  824,  825
 12,   14,  403,  404,  826,  827,  825
 13,  403,   14,   15,  826,  828,  829
 14,   15,  402,  403,  830,  831,  829
 15,  402,   15,   16,  830,  832,  833
 16,   16,  401,  402,  834,  835,  833
 17,  401,   16,   17,  834,  836,  837
 18,   17,  400,  401,  838,  839,  837
 19,  400,   17,   18,  838,  840,  841
 20,   18,  399,  400,  842,  843,  841
** ... 780 like lines cut
*Nset, nset=Set-1
    1,    2,    3,    4,    5,    6,    7,    8,   11,   12,   13,   14,   15,   16,   17,   18
   19,   20,   21,   22,   23,   24,   25,   26,   27,   28,   29,   30,   31,   32,   33,   34
   35,   36,   37,   38,   39,   40,   41,   42,   43,   44,   45,   46,   47,   48,   49,   50
   51,   52,   53,   54,   55,   56,   57,   58,   59,   60,   61,   62,   63,   64,   65,   66
   67,   68,   69,   70,   71,   72,   73,   74,   75,   76,   77,   78,   79,   80,   81,   82
   83,   84,   85,   86,   87,   88,   89,   90,   91,   92,   93,   94,   95,   96,   97,   98
   99,  100,  101,  102,  103,  104,  105,  106,  107,  108,  109,  110,  111,  112,  113,  114
  115,  116,  117,  118,  119,  120,  121,  122,  123,  124,  125,  126,  127,  128,  129,  130
  131,  132,  133,  134,  135,  136,  137,  138,  139,  140,  141,  142,  143,  144,  145,  146
  147,  148,  149,  150,  151,  152,  153,  154,  155,  156,  157,  158,  159,  160,  161,  162
  163,  164,  165,  166,  167,  168,  169,  170,  171,  172,  173,  174,  175,  176,  177,  178
  179,  180,  181,  182,  183,  184,  185,  186,  187,  188,  189,  190,  191,  192,  193,  194
  195,  196,  197,  198,  199,  200,  201,  202,  203,  204,  205,  206,  207,  208,  209,  210
  211,  212,  213,  214,  215,  216,  217,  218,  219,  220,  221,  222,  223,  224,  225,  226
  227,  228,  229,  230,  231,  232,  233,  234,  235,  236,  237,  238,  239,  240,  241,  242
  243,  244,  245,  246,  247,  248,  249,  250,  251,  252,  253,  254,  255,  256,  257,  258
  259,  260,  261,  262,  263,  264,  265,  266,  267,  268,  269,  270,  271,  272,  273,  274
  275,  276,  277,  278,  279,  280,  281,  282,  283,  284,  285,  286,  287,  288,  289,  290
  291,  292,  293,  294,  295,  296,  297,  298,  299,  300,  301,  302,  303,  304,  305,  306
  307,  308,  309,  310,  311,  312,  313,  314,  315,  316,  317,  318,  319,  320,  321,  322
** ... 130 like lines cut
*Elset, elset=Set-1, generate
   5,  800,    1
*Nset, nset=Set-2
   1,   2,   3,   4,   9,  10, 803, 804, 805, 806, 807, 808, 809, 810, 811
*Elset, elset=Set-2, generate
 1,  4,  1
** Section: Section-2
*Solid Section, elset=Set-2, material=Material-2
,
** Section: Section-1
*Solid Section, elset=Set-1, material=Material-1
,
*End Part
**  
**
** ASSEMBLY
**
*Assembly, name=Assembly
**  
*Instance, name=Part-1-1, part=Part-1
*End Instance
**  
*Nset, nset=Set-1, instance=Part-1-1
    5,    6, 1606
*Elset, elset=Set-1, instance=Part-1-1
 402,
*Nset, nset=Set-2, instance=Part-1-1
    7,    8, 2402
*Elset, elset=Set-2, instance=Part-1-1
 800,
*End Assembly
** 
** MATERIALS
** 
*Material, name=Material-1
*Elastic
210.,0.
*Material, name=Material-2
*Elastic
21.,0.
** 
** BOUNDARY CONDITIONS
** 
** Name: BC-1 Type: Displacement/Rotation
*Boundary
Set-1, 1, 1
Set-1, 2, 2
Set-1, 6, 6
** ----------------------------------------------------------------
** 
** STEP: Step-1
** 
*Step, name=Step-1, nlgeom=NO
*Static, direct
1., 1., 
** 
** BOUNDARY CONDITIONS
** 
** Name: BC-2 Type: Displacement/Rotation
*Boundary
Set-2, 1, 1, 0.05
** 
** OUTPUT REQUESTS
** 
*Restart, write, frequency=0
** 
** FIELD OUTPUT: F-Output-1
** 
*Output, field, variable=PRESELECT
** 
** HISTORY OUTPUT: H-Output-1
** 
*Output, history, variable=PRESELECT
*End Step
